test/test_data/lcc_test.raw
0,    100.00, 33, 0, 1, 60.00
A Frankenstein network for testing two-terminal dc lines
developed by Carleton Coffrin (cjc@lanl.gov) and David Fobes (dfobes@lanl.gov) April 2018
1001,'FAV SPOT 01',   87.0000, 1, 101, 201, 301,1.10000000,   0.000000, 1.10000, 0.90000, 1.10000, 0.90000
1002,'FAV SPOT 02',   87.0000, 3, 101, 201, 301,1.00000000,   0.000000, 1.10000, 0.90000, 1.10000, 0.90000
0 / END OF BUS DATA, BEGIN LOAD DATA
1002,'Z0',1, 101, 201,    10.500,     2.300,     0.000,     0.000,     0.000,     0.000, 301,1
0 / END OF LOAD DATA, BEGIN FIXED SHUNT DATA
0 / END OF FIXED SHUNT DATA, BEGIN GENERATOR DATA
1002,'1 ',   -22.000,   -88.041,   250.000,  -250.000,1.03000,    0,   100.000,   0.00000,   1.00000,   0.00000,   0.00000,1.00000,1,  100.0,   250.000,  -250.000, 301,1.0000,   0,1.0000,   0,1.0000,   0,1.0000,0, 1.0000
0 / END OF GENERATOR DATA, BEGIN BRANCH DATA
1001,1002,'1 ',4.75000E-4,4.68000E-3,8.20000E-2,1044.00,1170.00,1044.00,  0.00000,  0.00000,  0.00000,  0.00000,1,1,   9.4, 301,1.0000,   0,1.0000,   0,1.0000,   0,1.0000
0 / END OF BRANCH DATA, BEGIN TRANSFORMER DATA
0 / END OF TRANSFORMER DATA, BEGIN AREA DATA
0 / END OF AREA DATA, BEGIN TWO-TERMINAL DC DATA
'TTDC Ln 1', 1,     0.1000,      20.00,       7.50,       0.00,     0.0000,    0.00000,I,       0.00,  20,1.00000
  1002,  2, 90.00, 18.10,  0.0140,  0.5780,  230.0, 0.09772, 1.00000, 1.00000, 1.00000, 0.00624,     0,     0,     0, 1, 0.00000
  1001,  2, 90.00, 17.40,  0.0140,  0.5670,  230.0, 0.07134, 1.00000, 1.00000, 1.00000, 0.00625,     0,     0,     0, 1, 0.00000
0 / END OF TWO-TERMINAL DC DATA, BEGIN VOLTAGE SOURCE CONVERTER DATA
0 / END OF VOLTAGE SOURCE CONVERTER DATA, BEGIN IMPEDANCE CORRECTION DATA
0 / END OF IMPEDANCE CORRECTION DATA, BEGIN MULTI-TERMINAL DC DATA
0 / END OF MULTI-TERMINAL DC DATA, BEGIN MULTI-SECTION LINE DATA
0 / END OF MULTI-SECTION LINE DATA, BEGIN ZONE DATA
0 / END OF ZONE DATA, BEGIN INTER-AREA TRANSFER DATA
0 / END OF INTER-AREA TRANSFER DATA, BEGIN OWNER DATA
0 / END OF OWNER DATA, BEGIN FACTS CONTROL DEVICE DATA
0 / END OF FACTS CONTROL DEVICE DATA, BEGIN SWITCHED SHUNT DATA
0 /END OF SWITCHED SHUNT DATA, BEGIN GNE DEVICE DATA
0 /END OF GNE DEVICE DATA
Q
